grid_simulations/tests/Result_no_control/output_voltage_10.csv
# Result_no_control/output_voltage_10.csv run at 2000-01-01 10:00:00 EST on 963 nodes
node_name,voltA_mag,voltA_angle,voltB_mag,voltB_angle,voltC_mag,voltC_angle
SourceBus,6668.395609,0.000000,6668.395609,4.188790,6668.395609,2.094395
Bus1,249.892787,-0.543827,249.812223,3.647451,250.468774,1.556493
Bus2,249.628735,-0.543530,249.576862,3.647415,250.356305,1.556598
Bus3,249.601054,-0.543499,249.552188,3.647411,250.344515,1.556610
Bus4,249.575121,-0.543470,249.529072,3.647407,250.333469,1.556620
Bus5,249.552512,-0.543445,249.508918,3.647404,250.323839,1.556629
Bus6,249.516894,-0.543404,249.477168,3.647399,250.308667,1.556643
Bus7,247.092415,-0.540646,247.315146,3.647064,249.275670,1.557619
Bus8,246.983871,-0.540522,247.218314,3.647049,249.229409,1.557663
Bus9,246.893530,-0.540418,247.137718,3.647036,249.190905,1.557699
Bus10,246.814251,-0.540326,247.066988,3.647025,249.157116,1.557731
Bus11,246.755096,-0.540258,247.014211,3.647017,249.131903,1.557755
Bus12,246.699564,-0.540194,246.964666,3.647009,249.108234,1.557778
Bus13,246.665418,-0.540155,246.934200,3.647004,249.093680,1.557791
Bus14,246.580410,-0.540057,246.858355,3.646993,249.057447,1.557826
Bus15,245.891867,-0.539260,246.243942,3.646896,248.763940,1.558105
Bus16,245.891867,-0.539260,246.243942,3.646896,248.763940,1.558105
Bus17,245.057101,-0.538287,245.498865,3.646778,248.408038,1.558445
Bus18,245.891867,-0.539260,246.243942,3.646896,248.763940,1.558105
Bus19,244.999673,-0.538220,245.447599,3.646770,248.383551,1.558468
Bus20,245.891867,-0.539260,246.243942,3.646896,248.763940,1.558105
Bus21,244.935189,-0.538145,245.390034,3.646761,248.356055,1.558494
Bus22,245.891867,-0.539260,246.243942,3.646896,248.763940,1.558105
Bus23,244.830199,-0.538022,245.296306,3.646746,248.311287,1.558537
Bus24,245.891867,-0.539260,246.243942,3.646896,248.763940,1.558105
Bus25,244.639206,-0.537798,245.125792,3.646719,248.229843,1.558615
Bus26,245.891867,-0.539260,246.243942,3.646896,248.763940,1.558105
Bus27,244.350369,-0.537506,245.126678,3.646702,248.233006,1.558626
Bus28,242.582601,-0.535281,242.955671,3.646984,247.097325,1.559182
Bus29,245.891867,-0.539260,246.243942,3.646896,248.763940,1.558105
Bus30,244.310593,-0.537466,245.126800,3.646699,248.233442,1.558628
Bus31,244.311610,-0.537467,245.126797,3.646699,248.233431,1.558628
Bus32,242.035362,-0.534603,242.377953,3.647055,246.795844,1.559334
Bus33,245.891867,-0.539260,246.243942,3.646896,248.763940,1.558105
Bus34,244.219506,-0.537374,245.127080,3.646694,248.234440,1.558631
Bus35,244.310297,-0.537466,245.126801,3.646699,248.233445,1.558628
Bus36,242.038473,-0.534592,242.095222,3.647343,246.796668,1.559318
Bus37,240.289779,-0.532879,240.904028,3.647015,245.858560,1.560286
Bus38,245.891867,-0.539260,246.243942,3.646896,248.763940,1.558105
Bus39,244.308410,-0.537464,245.126807,3.646699,248.233466,1.558628
Bus40,242.038582,-0.534592,242.085347,3.647353,246.796697,1.559317
Bus41,242.038964,-0.534590,242.050634,3.647389,246.796798,1.559315
Bus42,239.078886,-0.531668,239.881223,3.646987,245.208279,1.560950
Bus43,240.289779,-0.532879,240.904028,3.647015,245.858560,1.560286
Bus44,245.891867,-0.539260,246.243942,3.646896,248.763940,1.558105
Bus45,244.305990,-0.537461,245.126815,3.646699,248.233492,1.558628
Bus46,242.038631,-0.534591,242.080896,3.647358,246.796710,1.559317
Bus47,242.040144,-0.534586,241.943349,3.647498,246.797110,1.559309
Bus48,238.164101,-0.530744,239.108333,3.646966,244.716962,1.561455
Bus49,240.289779,-0.532879,240.904028,3.647015,245.858560,1.560286
Bus50,245.891867,-0.539260,246.243942,3.646896,248.763940,1.558105
Bus51,244.300095,-0.537455,245.126833,3.646699,248.233557,1.558628
Bus52,242.038683,-0.534591,242.076179,3.647363,246.796723,1.559317
Bus53,238.032224,-0.530611,238.996898,3.646963,244.646129,1.561528
Bus54,238.164101,-0.530744,239.108333,3.646966,244.716962,1.561455
Bus55,240.289779,-0.532879,240.904028,3.647015,245.858560,1.560286
Bus56,245.891867,-0.539260,246.243942,3.646896,248.763940,1.558105
Bus57,244.295049,-0.537450,245.126848,3.646698,248.233612,1.558628
Bus58,242.038732,-0.534591,242.071686,3.647367,246.796736,1.559317
Bus59,237.434911,-0.530003,238.492126,3.646949,244.325291,1.561859
Bus60,238.164101,-0.530744,239.108333,3.646966,244.716962,1.561455
Bus61,240.289779,-0.532879,240.904028,3.647015,245.858560,1.560286
Bus62,245.891867,-0.539260,246.243942,3.646896,248.763940,1.558105
Bus63,244.270857,-0.537426,245.126922,3.646697,248.233877,1.558629
Bus64,242.038762,-0.534591,242.068995,3.647370,246.796744,1.559316
Bus65,237.332895,-0.529898,238.387514,3.646982,244.253628,1.561902
Bus66,237.018532,-0.529570,238.493450,3.646924,244.329832,1.561875
Bus67,238.164101,-0.530744,239.108333,3.646966,244.716962,1.561455
Bus68,240.289779,-0.532879,240.904028,3.647015,245.858560,1.560286
Bus69,245.891867,-0.539260,246.243942,3.646896,248.763940,1.558105
Bus70,244.185348,-0.537339,245.127185,3.646692,248.234814,1.558633
Bus71,242.038820,-0.534591,242.063716,3.647375,246.796760,1.559316
Bus72,236.127820,-0.528646,237.151581,3.647373,243.406987,1.562413
Bus73,236.916777,-0.529464,238.493773,3.646918,244.330942,1.561879
Bus74,236.916777,-0.529464,238.493773,3.646918,244.330942,1.561879
Bus75,238.164101,-0.530744,239.108333,3.646966,244.716962,1.561455
Bus76,240.289779,-0.532879,240.904028,3.647015,245.858560,1.560286
Bus77,245.891867,-0.539260,246.243942,3.646896,248.763940,1.558105
Bus78,242.039114,-0.534590,242.036962,3.647403,246.796837,1.559314
Bus79,235.707849,-0.528207,236.720775,3.647510,243.111884,1.562591
Bus80,238.164101,-0.530744,239.108333,3.646966,244.716962,1.561455
Bus81,240.289779,-0.532879,240.904028,3.647015,245.858560,1.560286
Bus82,245.891867,-0.539260,246.243942,3.646896,248.763940,1.558105
Bus83,242.040223,-0.534586,241.936149,3.647506,246.797131,1.559309
Bus84,235.616203,-0.528111,236.626760,3.647540,243.047484,1.562631
Bus85,238.164101,-0.530744,239.108333,3.646966,244.716962,1.561455
Bus86,240.289779,-0.532879,240.904028,3.647015,245.858560,1.560286
Bus87,245.891867,-0.539260,246.243942,3.646896,248.763940,1.558105
Bus88,235.430368,-0.527916,236.436112,3.647601,242.916892,1.562710
Bus89,238.164101,-0.530744,239.108333,3.646966,244.716962,1.561455
Bus90,240.289779,-0.532879,240.904028,3.647015,245.858560,1.560286
Bus91,245.891867,-0.539260,246.243942,3.646896,248.763940,1.558105
Bus92,235.255124,-0.527732,236.256323,3.647658,242.793739,1.562785
Bus93,240.289779,-0.532879,240.904028,3.647015,245.858560,1.560286
Bus94,245.891867,-0.539260,246.243942,3.646896,248.763940,1.558105
Bus95,235.153270,-0.527625,236.151824,3.647692,242.722159,1.562828
Bus96,240.289779,-0.532879,240.904028,3.647015,245.858560,1.560286
Bus97,245.891867,-0.539260,246.243942,3.646896,248.763940,1.558105
Bus98,235.086004,-0.527554,236.082809,3.647714,242.674886,1.562857
Bus99,240.289779,-0.532879,240.904028,3.647015,245.858560,1.560286
Bus100,245.891867,-0.539260,246.243942,3.646896,248.763940,1.558105
Bus101,234.993131,-0.527456,235.987520,3.647745,242.609615,1.562897
Bus102,240.289779,-0.532879,240.904028,3.647015,245.858560,1.560286
Bus103,245.891867,-0.539260,246.243942,3.646896,248.763940,1.558105
Bus104,234.993282,-0.527456,235.984862,3.647744,242.608064,1.562892
Bus105,234.930668,-0.527398,235.937873,3.647744,242.574360,1.562937
Bus106,240.289779,-0.532879,240.904028,3.647015,245.858560,1.560286
Bus107,234.993466,-0.527456,235.981645,3.647744,242.606189,1.562885
Bus108,234.895249,-0.527366,235.909720,3.647744,242.554369,1.562960
Bus109,240.289779,-0.532879,240.904028,3.647015,245.858560,1.560286
Bus110,234.993678,-0.527457,235.977917,3.647743,242.604015,1.562878
Bus111,233.497912,-0.526062,234.798887,3.647727,241.765678,1.563863
Bus112,240.289779,-0.532879,240.904028,3.647015,245.858560,1.560286
Bus113,234.994003,-0.527457,235.972232,3.647742,242.600700,1.562866
Bus114,233.357951,-0.525931,234.687606,3.647725,241.686679,1.563954
Bus115,240.289779,-0.532879,240.904028,3.647015,245.858560,1.560286
Bus116,234.994419,-0.527457,235.964924,3.647741,242.596438,1.562852
Bus117,233.357138,-0.525937,234.681819,3.647725,241.680273,1.563941
Bus118,232.931849,-0.525678,234.395589,3.647480,241.502754,1.564151
Bus119,240.289779,-0.532879,240.904028,3.647015,245.858560,1.560286
Bus120,234.994719,-0.527457,235.959678,3.647740,242.593379,1.562841
Bus121,233.357138,-0.525937,234.681819,3.647725,241.680273,1.563941
Bus122,233.356741,-0.525940,234.679002,3.647725,241.677154,1.563935
Bus123,232.163466,-0.525219,233.869010,3.647036,241.171093,1.564506
Bus124,240.289779,-0.532879,240.904028,3.647015,245.858560,1.560286
Bus125,234.995141,-0.527457,235.952264,3.647739,242.589056,1.562827
Bus126,233.357138,-0.525937,234.681819,3.647725,241.680273,1.563941
Bus127,233.354880,-0.525953,234.665767,3.647725,241.662502,1.563906
Bus128,231.817940,-0.525012,233.632222,3.646836,241.021956,1.564666
Bus129,240.289779,-0.532879,240.904028,3.647015,245.858560,1.560286
Bus130,234.995599,-0.527458,235.944244,3.647738,242.584379,1.562811
Bus131,233.357138,-0.525937,234.681819,3.647725,241.680273,1.563941
Bus132,233.256924,-0.525849,234.666083,3.647719,241.663568,1.563910
Bus133,233.378650,-0.525981,234.625022,3.647776,241.612003,1.563786
Bus134,231.715139,-0.524950,233.561773,3.646776,240.977584,1.564714
Bus135,240.289779,-0.532879,240.904028,3.647015,245.858560,1.560286
Bus136,234.996030,-0.527458,235.936679,3.647737,242.579968,1.562795
Bus137,233.357138,-0.525937,234.681819,3.647725,241.680273,1.563941
Bus138,233.248488,-0.525841,234.666110,3.647719,241.663660,1.563910
Bus139,233.396333,-0.526001,234.594710,3.647814,241.574436,1.563697
Bus140,231.599097,-0.524880,233.482251,3.646709,240.927498,1.564768
Bus141,240.289779,-0.532879,240.904028,3.647015,245.858560,1.560286
Bus142,234.996740,-0.527458,235.924243,3.647735,242.572716,1.562771
Bus143,233.357138,-0.525937,234.681819,3.647725,241.680273,1.563941
Bus144,233.240211,-0.525832,234.666137,3.647718,241.663750,1.563910
Bus145,233.408175,-0.526015,234.574411,3.647839,241.549280,1.563638
Bus146,231.489963,-0.524815,233.407463,3.646645,240.880394,1.564819
Bus147,240.289779,-0.532879,240.904028,3.647015,245.858560,1.560286
Bus148,235.000112,-0.527460,235.865109,3.647725,242.538237,1.562652
Bus149,233.357138,-0.525937,234.681819,3.647725,241.680273,1.563941
Bus150,233.233527,-0.525825,234.666158,3.647718,241.663823,1.563911
Bus151,233.411007,-0.526065,234.582940,3.647875,241.521308,1.563628
Bus152,233.411078,-0.526004,234.312281,3.648115,241.550032,1.563622
Bus153,231.362626,-0.524738,233.320201,3.646571,240.825433,1.564878
Bus154,240.289779,-0.532879,240.904028,3.647015,245.858560,1.560286
Bus155,235.000847,-0.527460,235.852227,3.647723,242.530726,1.562627
Bus156,233.357138,-0.525937,234.681819,3.647725,241.680273,1.563941
Bus157,233.223496,-0.525814,234.666191,3.647717,241.663932,1.563911
Bus158,233.418519,-0.526197,234.605562,3.647970,241.447123,1.563602
Bus159,233.411255,-0.526004,234.296327,3.648132,241.550077,1.563621
Bus160,231.325986,-0.524716,233.295092,3.646550,240.809619,1.564895
Bus161,240.289779,-0.532879,240.904028,3.647015,245.858560,1.560286
Bus162,235.004143,-0.527448,235.554278,3.648035,242.531583,1.562609
Bus163,234.997020,-0.527488,235.824678,3.647723,242.500221,1.562565
Bus164,233.357138,-0.525937,234.681819,3.647725,241.680273,1.563941
Bus165,233.211402,-0.525801,234.666230,3.647716,241.664064,1.563911
Bus166,233.421129,-0.526243,234.613420,3.648003,241.421354,1.563593
Bus167,233.411416,-0.526003,234.281752,3.648147,241.550119,1.563620
Bus168,231.117829,-0.524590,233.152446,3.646428,240.719775,1.564992
Bus169,240.289779,-0.532879,240.904028,3.647015,245.858560,1.560286
Bus170,235.004766,-0.527446,235.497993,3.648094,242.531745,1.562606
Bus171,234.991941,-0.527525,235.788105,3.647723,242.459724,1.562484
Bus172,233.357138,-0.525937,234.681819,3.647725,241.680273,1.563941
Bus173,233.202266,-0.525792,234.666259,3.647716,241.664163,1.563912
Bus174,233.421129,-0.526243,234.613420,3.648003,241.421354,1.563593
Bus175,233.421743,-0.526256,234.615680,3.648012,241.212752,1.563806
Bus176,233.411483,-0.526003,234.275697,3.648153,241.550136,1.563620
Bus177,231.000262,-0.524519,233.071881,3.646360,240.669032,1.565046
Bus178,235.006051,-0.527441,235.381869,3.648216,242.532078,1.562599
Bus179,234.990149,-0.527514,235.779130,3.647711,242.462125,1.562474
Bus180,234.992294,-0.527532,235.789403,3.647728,242.339971,1.562606
Bus181,233.357138,-0.525937,234.681819,3.647725,241.680273,1.563941
Bus182,233.191693,-0.525780,234.666293,3.647715,241.664278,1.563912
Bus183,233.421129,-0.526243,234.613420,3.648003,241.421354,1.563593
Bus184,233.421810,-0.526257,234.615924,3.648013,241.190223,1.563829
Bus185,233.411628,-0.526002,234.262646,3.648167,241.550174,1.563619
Bus186,230.912989,-0.524466,233.012075,3.646309,240.631364,1.565087
Bus187,234.983100,-0.527475,235.743810,3.647665,242.471573,1.562433
Bus188,234.993756,-0.527562,235.794775,3.647749,241.844377,1.563111
Bus189,233.357138,-0.525937,234.681819,3.647725,241.680273,1.563941
Bus190,233.181752,-0.525770,234.666325,3.647714,241.664387,1.563913
Bus191,233.421129,-0.526243,234.613420,3.648003,241.421354,1.563593
Bus192,233.421129,-0.526243,234.613420,3.648003,241.421354,1.563593
Bus193,233.421874,-0.526258,234.616160,3.648014,241.168432,1.563851
Bus194,233.411996,-0.526001,234.229406,3.648202,241.550269,1.563617
Bus195,230.834528,-0.524418,232.958308,3.646263,240.597500,1.565123
Bus196,234.970516,-0.527404,235.680749,3.647582,242.488444,1.562359
Bus197,234.993899,-0.527565,235.795300,3.647751,241.795953,1.563160
Bus198,234.993839,-0.527564,235.795078,3.647750,241.816386,1.563139
Bus199,233.357138,-0.525937,234.681819,3.647725,241.680273,1.563941
Bus200,233.171056,-0.525759,234.666360,3.647714,241.664503,1.563913
...
SourceBus_1,6647.548371,-0.004591,6649.823511,4.185146,6654.136742,2.089982
LOAD1,244.219506,-0.537374,245.127080,3.646694,248.234440,1.558631
LOAD2,242.040144,-0.534586,241.943349,3.647498,246.797110,1.559309
LOAD3,244.185348,-0.537339,245.127185,3.646692,248.234814,1.558633
LOAD4,236.916777,-0.529464,238.493773,3.646918,244.330942,1.561879
LOAD5,236.916777,-0.529464,238.493773,3.646918,244.330942,1.561879
LOAD6,242.040223,-0.534586,241.936149,3.647506,246.797131,1.559309
LOAD7,235.006051,-0.527441,235.381869,3.648216,242.532078,1.562599
LOAD8,234.994260,-0.527573,235.796627,3.647756,241.673528,1.563285
LOAD9,234.500379,-0.526909,235.682257,3.647554,242.493563,1.562378
LOAD10,234.998147,-0.527296,234.793605,3.648429,242.496722,1.562209
LOAD11,234.998147,-0.527296,234.793605,3.648429,242.496722,1.562209
LOAD12,234.994357,-0.527575,235.796982,3.647757,241.640768,1.563319
LOAD13,233.416450,-0.525984,233.827212,3.648626,241.551422,1.563593
LOAD14,232.987104,-0.525564,234.666953,3.647703,241.666506,1.563921
LOAD15,233.415861,-0.525986,233.880429,3.648570,241.551269,1.563597
LOAD16,233.423170,-0.526285,234.620926,3.648032,240.728486,1.564302
LOAD17,233.422893,-0.526280,234.619906,3.648028,240.822596,1.564206
LOAD18,227.518373,-0.520696,230.709396,3.643625,239.665697,1.566890
LOAD19,229.646348,-0.523724,232.110470,3.645644,239.675447,1.566024
LOAD20,227.702904,-0.521391,231.279003,3.644211,239.962534,1.566381
LOAD21,229.695202,-0.523550,232.437589,3.645794,240.272864,1.565494
LOAD22,227.615566,-0.521297,231.279294,3.644206,239.963484,1.566384
LOAD23,227.057320,-0.519608,229.899766,3.643491,240.121749,1.566553
LOAD24,228.811487,-0.523250,231.290045,3.645570,238.917365,1.566320
LOAD25,222.695738,-0.512142,228.208423,3.638206,241.008750,1.568148
LOAD26,227.312873,-0.521048,228.852699,3.645596,238.626089,1.564946
LOAD27,228.495583,-0.523038,230.861523,3.645695,238.465931,1.566383
LOAD28,228.495894,-0.523045,230.862663,3.645699,238.360209,1.566492
LOAD29,222.392113,-0.510850,227.451848,3.638313,241.006071,1.567536
LOAD30,222.726075,-0.512175,228.208315,3.638208,241.008422,1.568147
LOAD31,222.399595,-0.510859,227.451821,3.638314,241.005991,1.567535
LOAD32,226.914578,-0.520700,228.766928,3.645102,238.109865,1.565383
LOAD33,223.481326,-0.511290,226.691310,3.639767,240.342777,1.566605
LOAD34,223.751818,-0.514059,228.786270,3.639136,240.835590,1.567977
LOAD35,223.546449,-0.510988,226.031818,3.640444,240.729997,1.565867
LOAD36,223.429208,-0.511132,225.914268,3.640360,240.833665,1.566308
LOAD37,223.429411,-0.511131,225.896323,3.640379,240.833713,1.566307
LOAD38,226.427483,-0.520065,227.981219,3.645056,238.365463,1.565067
LOAD39,226.049592,-0.519745,227.882279,3.644668,237.535466,1.565603
LOAD40,225.791177,-0.518973,226.998128,3.644889,238.095402,1.564645
LOAD41,225.175672,-0.516869,225.116515,3.645850,237.800280,1.563650
LOAD42,226.049657,-0.519746,227.882524,3.644669,237.512805,1.565626
LOAD43,224.791403,-0.516646,225.519799,3.645268,236.724136,1.564683
LOAD44,227.170695,-0.520869,228.556194,3.645679,238.565851,1.564920
LOAD45,225.175369,-0.516870,225.143638,3.645821,237.800203,1.563652
LOAD46,224.796425,-0.518338,228.252896,3.644425,238.348820,1.565229
LOAD47,224.791299,-0.516644,225.519398,3.645267,236.761267,1.564644
LOAD48,224.859477,-0.518407,228.252683,3.644429,238.348137,1.565226
LOAD49,224.734823,-0.518270,228.253104,3.644421,238.349487,1.565232
LOAD50,224.480342,-0.514119,223.472000,3.645988,237.821227,1.562481
LOAD51,224.541660,-0.517104,226.824870,3.644160,238.061571,1.564611
LOAD52,223.516738,-0.514032,224.842205,3.644529,237.768495,1.563511
LOAD53,224.480342,-0.514119,223.419358,3.646048,237.821227,1.562481
LOAD54,224.370314,-0.516916,226.825452,3.644149,238.063423,1.564618
LOAD55,223.499691,-0.513981,224.844997,3.644478,237.777250,1.563545
